<?xml version="1.0" encoding="UTF-8"?>

<!-- generated on 2024-12-24 22:54:53.217574 by randomTrips.py v1_19_0+0000-baa66a0f364
<configuration>
    <net-file value="osm.net.xml.gz"/>
    <output-trip-file value="osm.pedestrian.rou.xml"/>
    <pedestrians value="True"/>
    <period value="2.0"/>
</configuration>
-->

<routes xmlns:xsi="http://www.w3.org/2001/XMLSchema-instance" xsi:noNamespaceSchemaLocation="http://sumo.dlr.de/xsd/routes_file.xsd">
    <person id="0" depart="0.00">
        <walk from="49153758#1" to="-309158949#0"/>
    </person>
    <person id="1" depart="2.00">
        <walk from="268564476#6" to="207599002#0"/>
    </person>
    <person id="2" depart="4.00">
        <walk from="51797021#7" to="49730011#1"/>
    </person>
    <person id="3" depart="6.00">
        <walk from="711730815#3" to="-48794929#5"/>
    </person>
    <person id="4" depart="8.00">
        <walk from="373792905#0" to="-311201274#3"/>
    </person>
    <person id="5" depart="10.00">
        <walk from="198645488#1" to="431945142#0"/>
    </person>
    <person id="6" depart="12.00">
        <walk from="-309237290#11" to="136851214#0"/>
    </person>
    <person id="7" depart="14.00">
        <walk from="49153805#5" to="459941074"/>
    </person>
    <person id="8" depart="16.00">
        <walk from="198645490#2" to="48776374#0"/>
    </person>
    <person id="9" depart="18.00">
        <walk from="607128988#11" to="-136814878#3"/>
    </person>
    <person id="10" depart="20.00">
        <walk from="567125917#3" to="503496498#0"/>
    </person>
    <person id="11" depart="22.00">
        <walk from="312561758#1" to="1044172128#8"/>
    </person>
    <person id="12" depart="24.00">
        <walk from="827108837#1" to="312174842#1"/>
    </person>
    <person id="13" depart="26.00">
        <walk from="-48810830#0" to="-49153735#1"/>
    </person>
    <person id="14" depart="28.00">
        <walk from="653568729#2" to="48776441#6"/>
    </person>
    <person id="15" depart="30.00">
        <walk from="568872747#0" to="51420632#4"/>
    </person>
    <person id="16" depart="32.00">
        <walk from="455016882#4" to="833694636#3"/>
    </person>
    <person id="17" depart="34.00">
        <walk from="333599279#1" to="462490971#1"/>
    </person>
    <person id="18" depart="36.00">
        <walk from="653548752#2" to="48810820#2"/>
    </person>
    <person id="19" depart="38.00">
        <walk from="663445700#1" to="48768070#15"/>
    </person>
    <person id="20" depart="40.00">
        <walk from="506332988#3" to="-338325578#5"/>
    </person>
    <person id="21" depart="42.00">
        <walk from="226831242#3" to="280707092#7"/>
    </person>
    <person id="22" depart="44.00">
        <walk from="-48776348#1" to="229056582#1"/>
    </person>
    <person id="23" depart="46.00">
        <walk from="-49153756#0" to="268569312#7"/>
    </person>
    <person id="24" depart="48.00">
        <walk from="49153749#0" to="328432905#6"/>
    </person>
    <person id="25" depart="50.00">
        <walk from="330014366#7" to="137077758#3"/>
    </person>
    <person id="26" depart="52.00">
        <walk from="257896676#6" to="810543932#4"/>
    </person>
    <person id="27" depart="54.00">
        <walk from="49153779#0" to="48794929#6"/>
    </person>
    <person id="28" depart="56.00">
        <walk from="1095692938" to="51420632#0"/>
    </person>
    <person id="29" depart="58.00">
        <walk from="1061958805#1" to="334814745#1"/>
    </person>
    <person id="30" depart="60.00">
        <walk from="833702041#1" to="49153760#2"/>
    </person>
    <person id="31" depart="62.00">
        <walk from="462702695" to="49730031#2"/>
    </person>
    <person id="32" depart="64.00">
        <walk from="653568717#2" to="544330069#1"/>
    </person>
    <person id="33" depart="66.00">
        <walk from="226831245#1" to="-312561758#0"/>
    </person>
    <person id="34" depart="68.00">
        <walk from="304481581#3" to="257896676#9"/>
    </person>
    <person id="35" depart="70.00">
        <walk from="137111673#1" to="818397381"/>
    </person>
    <person id="36" depart="72.00">
        <walk from="667223631#4" to="304481580#4"/>
    </person>
    <person id="37" depart="74.00">
        <walk from="49153822#9" to="338325573#1"/>
    </person>
    <person id="38" depart="76.00">
        <walk from="793186869" to="379324259#2"/>
    </person>
    <person id="39" depart="78.00">
        <walk from="257802736#1" to="238526536"/>
    </person>
    <person id="40" depart="80.00">
        <walk from="468226875#0" to="255431333#4"/>
    </person>
    <person id="41" depart="82.00">
        <walk from="48776348#2" to="713372103#3"/>
    </person>
    <person id="42" depart="84.00">
        <walk from="338325578#8" to="198645488#3"/>
    </person>
    <person id="43" depart="86.00">
        <walk from="965225392#0" to="434508489#0"/>
    </person>
    <person id="44" depart="88.00">
        <walk from="-48810822" to="-338325579#0"/>
    </person>
    <person id="45" depart="90.00">
        <walk from="-49730072#2" to="49153733#2"/>
    </person>
    <person id="46" depart="92.00">
        <walk from="553754314#3" to="373792905#1"/>
    </person>
    <person id="47" depart="94.00">
        <walk from="-431945143" to="334814745#2"/>
    </person>
    <person id="48" depart="96.00">
        <walk from="965225390#0" to="455015959#3"/>
    </person>
    <person id="49" depart="98.00">
        <walk from="833694634#0" to="663445698"/>
    </person>
    <person id="50" depart="100.00">
        <walk from="-226831229#1" to="506339442#1"/>
    </person>
    <person id="51" depart="102.00">
        <walk from="49730012#2" to="455016882#6"/>
    </person>
    <person id="52" depart="104.00">
        <walk from="257896676#6" to="49153761#0"/>
    </person>
    <person id="53" depart="106.00">
        <walk from="-49730077#2" to="375209459#1"/>
    </person>
    <person id="54" depart="108.00">
        <walk from="379324255" to="827096840#2"/>
    </person>
    <person id="55" depart="110.00">
        <walk from="667223631#2" to="255431333#6"/>
    </person>
    <person id="56" depart="112.00">
        <walk from="431945124#0" to="1148401450"/>
    </person>
    <person id="57" depart="114.00">
        <walk from="771835294#1" to="663679158#0"/>
    </person>
    <person id="58" depart="116.00">
        <walk from="299836295#0" to="49153757#1"/>
    </person>
    <person id="59" depart="118.00">
        <walk from="48794929#5" to="1044172124"/>
    </person>
    <person id="60" depart="120.00">
        <walk from="524120072#0" to="455016885#4"/>
    </person>
    <person id="61" depart="122.00">
        <walk from="544330073#5" to="455015959#7"/>
    </person>
    <person id="62" depart="124.00">
        <walk from="-1044172118" to="309158949#0"/>
    </person>
    <person id="63" depart="126.00">
        <walk from="-296722895#0" to="810537372#2"/>
    </person>
    <person id="64" depart="128.00">
        <walk from="667223633#1" to="653568677#3"/>
    </person>
    <person id="65" depart="130.00">
        <walk from="303873198" to="-396920791#0"/>
    </person>
    <person id="66" depart="132.00">
        <walk from="667223632#1" to="824835941#1"/>
    </person>
    <person id="67" depart="134.00">
        <walk from="-48794926#2" to="405683280#2"/>
    </person>
    <person id="68" depart="136.00">
        <walk from="-468226873" to="518980185#1"/>
    </person>
    <person id="69" depart="138.00">
        <walk from="525949244#0" to="-51797018#0"/>
    </person>
    <person id="70" depart="140.00">
        <walk from="385940773#2" to="462045634#5"/>
    </person>
    <person id="71" depart="142.00">
        <walk from="257896676#0" to="667219594#0"/>
    </person>
    <person id="72" depart="144.00">
        <walk from="373793316#1" to="137111675#0"/>
    </person>
    <person id="73" depart="146.00">
        <walk from="455016885#4" to="51420632#4"/>
    </person>
    <person id="74" depart="148.00">
        <walk from="136851214#8" to="304464526#0"/>
    </person>
    <person id="75" depart="150.00">
        <walk from="906595682" to="49153805#5"/>
    </person>
    <person id="76" depart="152.00">
        <walk from="375486266#3" to="448612802#0"/>
    </person>
    <person id="77" depart="154.00">
        <walk from="-51420585" to="222747662#1"/>
    </person>
    <person id="78" depart="156.00">
        <walk from="312174938#1" to="48776373#2"/>
    </person>
    <person id="79" depart="158.00">
        <walk from="226831245#5" to="198645490#1"/>
    </person>
    <person id="80" depart="160.00">
        <walk from="-468226875#17" to="49153739#0"/>
    </person>
    <person id="81" depart="162.00">
        <walk from="226831244" to="713372107#5"/>
    </person>
    <person id="82" depart="164.00">
        <walk from="663445695#2" to="-468226875#17"/>
    </person>
    <person id="83" depart="166.00">
        <walk from="231534776#5" to="492844492#4"/>
    </person>
    <person id="84" depart="168.00">
        <walk from="18487156#2" to="-518977854"/>
    </person>
    <person id="85" depart="170.00">
        <walk from="810543932#1" to="48768030#2"/>
    </person>
    <person id="86" depart="172.00">
        <walk from="385940773#11" to="549763643#3"/>
    </person>
    <person id="87" depart="174.00">
        <walk from="568872747#1" to="136814873#6"/>
    </person>
    <person id="88" depart="176.00">
        <walk from="-49153735#1" to="373795207"/>
    </person>
    <person id="89" depart="178.00">
        <walk from="373793316#2" to="379500216"/>
    </person>
    <person id="90" depart="180.00">
        <walk from="51420623#6" to="492844494#5"/>
    </person>
    <person id="91" depart="182.00">
        <walk from="833702033#0" to="-49153738#2"/>
    </person>
    <person id="92" depart="184.00">
        <walk from="355749093#0" to="312561756#4"/>
    </person>
    <person id="93" depart="186.00">
        <walk from="663445700#1" to="244509930#0"/>
    </person>
    <person id="94" depart="188.00">
        <walk from="136814873#5" to="379324250#4"/>
    </person>
    <person id="95" depart="190.00">
        <walk from="373792905#0" to="268569312#9"/>
    </person>
    <person id="96" depart="192.00">
        <walk from="244509947#1" to="810537363#1"/>
    </person>
    <person id="97" depart="194.00">
        <walk from="378443970#5" to="663445700#0"/>
    </person>
    <person id="98" depart="196.00">
        <walk from="462045635#1" to="-366416866#2"/>
    </person>
    <person id="99" depart="198.00">
        <walk from="988516137" to="653568704#1"/>
    </person>
    <person id="100" depart="200.00">
        <walk from="832951952#0" to="810537367#2"/>
    </person>
    <person id="101" depart="202.00">
        <walk from="653568732#3" to="1061958808#5"/>
    </person>
    <person id="102" depart="204.00">
        <walk from="405683280#0" to="184282389#1"/>
    </person>
    <person id="103" depart="206.00">
        <walk from="343858242#1" to="-396920806"/>
    </person>
    <person id="104" depart="208.00">
        <walk from="333599312" to="833702034#1"/>
    </person>
    <person id="105" depart="210.00">
        <walk from="257896676#0" to="549763643#10"/>
    </person>
    <person id="106" depart="212.00">
        <walk from="379324257#3" to="373793316#0"/>
    </person>
    <person id="107" depart="214.00">
        <walk from="827108837#1" to="907813140#0"/>
    </person>
    <person id="108" depart="216.00">
        <walk from="462702681#3" to="506339439#2"/>
    </person>
    <person id="109" depart="218.00">
        <walk from="1044172128#6" to="297603932#4"/>
    </person>
    <person id="110" depart="220.00">
        <walk from="832951951#1" to="48768137#1"/>
    </person>
    <person id="111" depart="222.00">
        <walk from="456557669" to="518978932"/>
    </person>
    <person id="112" depart="224.00">
        <walk from="-379500213#4" to="48776348#1"/>
    </person>
    <person id="113" depart="226.00">
        <walk from="431945127#1" to="662286833#1"/>
    </person>
    <person id="114" depart="228.00">
        <walk from="1044271658#1" to="827798605#3"/>
    </person>
    <person id="115" depart="230.00">
        <walk from="-48776348#2" to="136814869#1"/>
    </person>
    <person id="116" depart="232.00">
        <walk from="48776382#1" to="49730010#0"/>
    </person>
    <person id="117" depart="234.00">
        <walk from="229070522#0" to="-506339439#7"/>
    </person>
    <person id="118" depart="236.00">
        <walk from="711730813#0" to="235520227#5"/>
    </person>
    <person id="119" depart="238.00">
        <walk from="48776378#4" to="48810822"/>
    </person>
    <person id="120" depart="240.00">
        <walk from="373791458#0" to="48776344#2"/>
    </person>
    <person id="121" depart="242.00">
        <walk from="453793966#0" to="810543931#0"/>
    </person>
    <person id="122" depart="244.00">
        <walk from="136851216#1" to="506335567#1"/>
    </person>
    <person id="123" depart="246.00">
        <walk from="231534776#7" to="338325573#2"/>
    </person>
    <person id="124" depart="248.00">
        <walk from="492844494#0" to="301194764#1"/>
    </person>
    <person id="125" depart="250.00">
        <walk from="305875111#2" to="518980173#1"/>
    </person>
    <person id="126" depart="252.00">
        <walk from="-468226875#8" to="379324259#0"/>
    </person>
    <person id="127" depart="254.00">
        <walk from="965225392#4" to="965225390#0"/>
    </person>
    <person id="128" depart="256.00">
        <walk from="-468396231" to="138265881#1"/>
    </person>
    <person id="129" depart="258.00">
        <walk from="257896676#0" to="810543929#3"/>
    </person>
    <person id="130" depart="260.00">
        <walk from="667223635#0" to="667223633#2"/>
    </person>
    <person id="131" depart="262.00">
        <walk from="330014366#5" to="1047137439"/>
    </person>
    <person id="132" depart="264.00">
        <walk from="653568682#1" to="506332987#2"/>
    </person>
    <person id="133" depart="266.00">
        <walk from="48794937" to="833702037"/>
    </person>
    <person id="134" depart="268.00">
        <walk from="49153822#1" to="-136847482#3"/>
    </person>
    <person id="135" depart="270.00">
        <walk from="618963474#0" to="301194763"/>
    </person>
    <person id="136" depart="272.00">
        <walk from="49153903#4" to="810653314"/>
    </person>
    <person id="137" depart="274.00">
        <walk from="-518978930#2" to="-50160299#0"/>
    </person>
    <person id="138" depart="276.00">
        <walk from="-49730012#1" to="462491755#1"/>
    </person>
    <person id="139" depart="278.00">
        <walk from="26750953#1" to="48794923#0"/>
    </person>
    <person id="140" depart="280.00">
        <walk from="506339431#4" to="136851215#8"/>
    </person>
    <person id="141" depart="282.00">
        <walk from="49153748#2" to="255993464#0"/>
    </person>
    <person id="142" depart="284.00">
        <walk from="409723847" to="713372107#5"/>
    </person>
    <person id="143" depart="286.00">
        <walk from="653568722#2" to="-48810828"/>
    </person>
    <person id="144" depart="288.00">
        <walk from="373793316#2" to="268569312#1"/>
    </person>
    <person id="145" depart="290.00">
        <walk from="-136814139#1" to="544330063#1"/>
    </person>
    <person id="146" depart="292.00">
        <walk from="49153751#2" to="255431333#14"/>
    </person>
    <person id="147" depart="294.00">
        <walk from="518977856#0" to="462490971#0"/>
    </person>
    <person id="148" depart="296.00">
        <walk from="373794831#13" to="-137111670"/>
    </person>
    <person id="149" depart="298.00">
        <walk from="-48768062#4" to="667223637#0"/>
    </person>
    <person id="150" depart="300.00">
        <walk from="713372107#18" to="459996737#1"/>
    </person>
    <person id="151" depart="302.00">
        <walk from="653568683#0" to="48776342#4"/>
    </person>
    <person id="152" depart="304.00">
        <walk from="1032485301#5" to="-51420635#2"/>
    </person>
    <person id="153" depart="306.00">
        <walk from="303873200#0" to="713372104#3"/>
    </person>
    <person id="154" depart="308.00">
        <walk from="554380770#1" to="663445698"/>
    </person>
    <person id="155" depart="310.00">
        <walk from="713372104#3" to="137077766#1"/>
    </person>
    <person id="156" depart="312.00">
        <walk from="244509930#3" to="-49153764#2"/>
    </person>
    <person id="157" depart="314.00">
        <walk from="544330074#3" to="667223643#1"/>
    </person>
    <person id="158" depart="316.00">
        <walk from="358057029" to="48810826#1"/>
    </person>
    <person id="159" depart="318.00">
        <walk from="1044172128#5" to="810543927#0"/>
    </person>
    <person id="160" depart="320.00">
        <walk from="663445706#2" to="833694639#0"/>
    </person>
    <person id="161" depart="322.00">
        <walk from="607128988#7" to="667223635#2"/>
    </person>
    <person id="162" depart="324.00">
        <walk from="-309157015#1" to="51797021#8"/>
    </person>
    <person id="163" depart="326.00">
        <walk from="311201274#4" to="810543927#6"/>
    </person>
    <person id="164" depart="328.00">
        <walk from="557050843#0" to="663445706#0"/>
    </person>
    <person id="165" depart="330.00">
        <walk from="607128988#7" to="257896676#6"/>
    </person>
    <person id="166" depart="332.00">
        <walk from="550354344" to="-49730012#5"/>
    </person>
    <person id="167" depart="334.00">
        <walk from="667219594#0" to="663445694#0"/>
    </person>
    <person id="168" depart="336.00">
        <walk from="198645495#1" to="618963473#2"/>
    </person>
    <person id="169" depart="338.00">
        <walk from="379324259#6" to="303873193#4"/>
    </person>
    <person id="170" depart="340.00">
        <walk from="554003214#0" to="226831242#2"/>
    </person>
    <person id="171" depart="342.00">
        <walk from="-304481581#0" to="136814876#3"/>
    </person>
    <person id="172" depart="344.00">
        <walk from="309237290#9" to="663445706#1"/>
    </person>
    <person id="173" depart="346.00">
        <walk from="827845674#0" to="268569314#1"/>
    </person>
    <person id="174" depart="348.00">
        <walk from="49153761#2" to="338325579#0"/>
    </person>
    <person id="175" depart="350.00">
        <walk from="833702030#2" to="455016882#4"/>
    </person>
    <person id="176" depart="352.00">
        <walk from="810653315" to="-50160241"/>
    </person>
    <person id="177" depart="354.00">
        <walk from="833694630#0" to="1148401450"/>
    </person>
    <person id="178" depart="356.00">
        <walk from="827842319#3" to="257896676#1"/>
    </person>
    <person id="179" depart="358.00">
        <walk from="-49730012#6" to="375209459#0"/>
    </person>
    <person id="180" depart="360.00">
        <walk from="51420623#5" to="304481580#0"/>
    </person>
    <person id="181" depart="362.00">
        <walk from="48794924#2" to="435165385#2"/>
    </person>
    <person id="182" depart="364.00">
        <walk from="334841515#1" to="48768063#9"/>
    </person>
    <person id="183" depart="366.00">
        <walk from="252657368#4" to="506332994#3"/>
    </person>
    <person id="184" depart="368.00">
        <walk from="-1047137441" to="810537366#0"/>
    </person>
    <person id="185" depart="370.00">
        <walk from="455016885#1" to="506339439#5"/>
    </person>
    <person id="186" depart="372.00">
        <walk from="518977860" to="492844493#0"/>
    </person>
    <person id="187" depart="374.00">
        <walk from="328432905#4" to="-468226875#1"/>
    </person>
    <person id="188" depart="376.00">
        <walk from="49153905#3" to="310906628#1"/>
    </person>
    <person id="189" depart="378.00">
        <walk from="304481580#1" to="653568730#1"/>
    </person>
    <person id="190" depart="380.00">
        <walk from="506339439#6" to="301194764#2"/>
    </person>
    <person id="191" depart="382.00">
        <walk from="304107862#0" to="362781444"/>
    </person>
    <person id="192" depart="384.00">
        <walk from="355749092" to="296722895#1"/>
    </person>
    <person id="193" depart="386.00">
        <walk from="-51420635#2" to="373792030"/>
    </person>
    <person id="194" depart="388.00">
        <walk from="810653327#0" to="49730011#11"/>
    </person>
    <person id="195" depart="390.00">
        <walk from="713372107#15" to="48810790#2"/>
    </person>
    <person id="196" depart="392.00">
        <walk from="301194764#6" to="462045632#2"/>
    </person>
    <person id="197" depart="394.00">
        <walk from="-1044172118" to="273960617#1"/>
    </person>
    <person id="198" depart="396.00">
        <walk from="373794831#7" to="48768137#5"/>
    </person>
    <person id="199" depart="398.00">
        <walk from="49153822#6" to="379500211#9"/>
    </person>
    <person id="200" depart="400.00">
        <walk from="378443970#1" to="184282389#1"/>
    </person>
    <person id="201" depart="402.00">
        <walk from="385940773#13" to="713372107#0"/>
    </person>
    <person id="202" depart="404.00">
        <walk from="554380770#1" to="1061958813#3"/>
    </person>
    <person id="203" depart="406.00">
        <walk from="-48794923#1" to="443174610#2"/>
    </person>
    <person id="204" depart="408.00">
        <walk from="49153746#2" to="312174839#1"/>
    </person>
    <person id="205" depart="410.00">
        <walk from="618963475#0" to="518978937"/>
    </person>
    <person id="206" depart="412.00">
        <walk from="492844494#3" to="222747662#1"/>
    </person>
    <person id="207" depart="414.00">
        <walk from="136851214#1" to="-309157015#0"/>
    </person>
    <person id="208" depart="416.00">
        <walk from="23403474#4" to="385940773#19"/>
    </person>
    <person id="209" depart="418.00">
        <walk from="659855269#2" to="-468226875#9"/>
    </person>
    <person id="210" depart="420.00">
        <walk from="367573586#0" to="49153736#2"/>
    </person>
    <person id="211" depart="422.00">
        <walk from="136814878#12" to="50160300#1"/>
    </person>
    <person id="212" depart="424.00">
        <walk from="421832980#0" to="233952025#2"/>
    </person>
    <person id="213" depart="426.00">
        <walk from="49153829" to="-136814878#12"/>
    </person>
    <person id="214" depart="428.00">
        <walk from="518978936#3" to="544330061#1"/>
    </person>
    <person id="215" depart="430.00">
        <walk from="-49730009" to="373793930#1"/>
    </person>
    <person id="216" depart="432.00">
        <walk from="1146893070#1" to="827108838#0"/>
    </person>
    <person id="217" depart="434.00">
        <walk from="448612802#1" to="-366416866#0"/>
    </person>
    <person id="218" depart="436.00">
        <walk from="244509930#2" to="653568732#1"/>
    </person>
    <person id="219" depart="438.00">
        <walk from="379324258#1" to="555975821#0"/>
    </person>
    <person id="220" depart="440.00">
        <walk from="492844492#11" to="833702038#2"/>
    </person>
    <person id="221" depart="442.00">
        <walk from="48776382#4" to="827095141#2"/>
    </person>
    <person id="222" depart="444.00">
        <walk from="711730813#3" to="48794940#0"/>
    </person>
    <person id="223" depart="446.00">
        <walk from="506339439#4" to="431945141#1"/>
    </person>
    <person id="224" depart="448.00">
        <walk from="653568677#0" to="462045632#2"/>
    </person>
    <person id="225" depart="450.00">
        <walk from="713372103#1" to="518977865#0"/>
    </person>
    <person id="226" depart="452.00">
        <walk from="385940773#18" to="255431324#0"/>
    </person>
    <person id="227" depart="454.00">
        <walk from="238704237" to="49153755"/>
    </person>
    <person id="228" depart="456.00">
        <walk from="525949244#0" to="451352710#6"/>
    </person>
    <person id="229" depart="458.00">
        <walk from="49153731#1" to="268564476#3"/>
    </person>
    <person id="230" depart="460.00">
        <walk from="-48768063#9" to="273959596#1"/>
    </person>
    <person id="231" depart="462.00">
        <walk from="265741506" to="309157017#1"/>
    </person>
    <person id="232" depart="464.00">
        <walk from="455016885#7" to="-659855269#0"/>
    </person>
    <person id="233" depart="466.00">
        <walk from="228922785#2" to="49749057#2"/>
    </person>
    <person id="234" depart="468.00">
        <walk from="506332993#0" to="-435162024#1"/>
    </person>
    <person id="235" depart="470.00">
        <walk from="362781440#1" to="457484811#0"/>
    </person>
    <person id="236" depart="472.00">
        <walk from="370665701#1" to="136851219#6"/>
    </person>
    <person id="237" depart="474.00">
        <walk from="373791714#1" to="713372107#3"/>
    </person>
    <person id="238" depart="476.00">
        <walk from="48776348#1" to="50160299#1"/>
    </person>
    <person id="239" depart="478.00">
        <walk from="663445693#3" to="525949243"/>
    </person>
    <person id="240" depart="480.00">
        <walk from="334814745#12" to="-136814878#13"/>
    </person>
    <person id="241" depart="482.00">
        <walk from="321947680#3" to="518980175"/>
    </person>
    <person id="242" depart="484.00">
        <walk from="662286833#4" to="827096840#0"/>
    </person>
    <person id="243" depart="486.00">
        <walk from="373791458#0" to="518978931#2"/>
    </person>
    <person id="244" depart="488.00">
        <walk from="459996743" to="48776441#4"/>
    </person>
    <person id="245" depart="490.00">
        <walk from="198645490#2" to="198645488#3"/>
    </person>
    <person id="246" depart="492.00">
        <walk from="375486264#0" to="-309589710"/>
    </person>
    <person id="247" depart="494.00">
        <walk from="312174842#0" to="49730011#2"/>
    </person>
    <person id="248" depart="496.00">
        <walk from="355749095#2" to="1061958807#2"/>
    </person>
    <person id="249" depart="498.00">
        <walk from="383315936" to="-51796997"/>
    </person>
    <person id="250" depart="500.00">
        <walk from="48810831#1" to="-309237290#2"/>
    </person>
    <person id="251" depart="502.00">
        <walk from="337513643#1" to="468227446"/>
    </person>
    <person id="252" depart="504.00">
        <walk from="-309237290#3" to="49153764#1"/>
    </person>
    <person id="253" depart="506.00">
        <walk from="-544330076#0" to="379324260#3"/>
    </person>
    <person id="254" depart="508.00">
        <walk from="-366416866#1" to="333599312"/>
    </person>
    <person id="255" depart="510.00">
        <walk from="137111674#1" to="309237290#3"/>
    </person>
    <person id="256" depart="512.00">
        <walk from="518980187#4" to="334814745#0"/>
    </person>
    <person id="257" depart="514.00">
        <walk from="518980173#2" to="653568679#0"/>
    </person>
    <person id="258" depart="516.00">
        <walk from="252494921#0" to="-48776405#5"/>
    </person>
    <person id="259" depart="518.00">
        <walk from="-296722895#0" to="455016885#5"/>
    </person>
    <person id="260" depart="520.00">
        <walk from="992136741" to="320896966#0"/>
    </person>
    <person id="261" depart="522.00">
        <walk from="49153809#2" to="544330074#7"/>
    </person>
    <person id="262" depart="524.00">
        <walk from="49153817#3" to="518980177#2"/>
    </person>
    <person id="263" depart="526.00">
        <walk from="827095141#13" to="136851214#2"/>
    </person>
    <person id="264" depart="528.00">
        <walk from="-302110685#2" to="1044172119#4"/>
    </person>
    <person id="265" depart="530.00">
        <walk from="-51420632#6" to="492844492#6"/>
    </person>
    <person id="266" depart="532.00">
        <walk from="468226875#8" to="198645485#6"/>
    </person>
    <person id="267" depart="534.00">
        <walk from="506316044#2" to="531659133"/>
    </person>
    <person id="268" depart="536.00">
        <walk from="1061958809#4" to="48794926#1"/>
    </person>
    <person id="269" depart="538.00">
        <walk from="518978932" to="-50160227"/>
    </person>
    <person id="270" depart="540.00">
        <walk from="618963476#0" to="827845666#1"/>
    </person>
    <person id="271" depart="542.00">
        <walk from="-49730012#5" to="-309237290#0"/>
    </person>
    <person id="272" depart="544.00">
        <walk from="304464526#1" to="49730011#11"/>
    </person>
    <person id="273" depart="546.00">
        <walk from="827108838#1" to="338325574#0"/>
    </person>
    <person id="274" depart="548.00">
        <walk from="506335565#1" to="-48768063#11"/>
    </person>
    <person id="275" depart="550.00">
        <walk from="49730077#3" to="49153733#1"/>
    </person>
    <person id="276" depart="552.00">
        <walk from="-49153758#1" to="544330065#2"/>
    </person>
    <person id="277" depart="554.00">
        <walk from="660406000" to="48776416#1"/>
    </person>
    <person id="278" depart="556.00">
        <walk from="-51420588" to="833702032#2"/>
    </person>
    <person id="279" depart="558.00">
        <walk from="544330077#1" to="312929524"/>
    </person>
    <person id="280" depart="560.00">
        <walk from="373794831#2" to="330014367#0"/>
    </person>
    <person id="281" depart="562.00">
        <walk from="431945143" to="312561758#2"/>
    </person>
    <person id="282" depart="564.00">
        <walk from="659855269#2" to="618963480#2"/>
    </person>
    <person id="283" depart="566.00">
        <walk from="-49153775#2" to="827798605#3"/>
    </person>
    <person id="284" depart="568.00">
        <walk from="49153749#0" to="653548751#1"/>
    </person>
    <person id="285" depart="570.00">
        <walk from="506332993#3" to="375209460#1"/>
    </person>
    <person id="286" depart="572.00">
        <walk from="51797018#1" to="827845670#1"/>